37

Fe   0.0       0.0  0.0
N    1.9764    0.0    0.0
N    0.0       1.9884    0.0
N    -1.9764       0.0   0.0
N    0.0       -1.9884   0.0
C    2.8182    -1.0903    0.0
C    2.8182    1.0903 0.0
C    1.0918    2.8249 0.0
C    -1.0918       2.8249    0.0
C    -2.8182       1.0903    0.0
C    -2.8182       -1.0903   0.0
C    -1.0918       -2.8249   0.0
C    1.0918    -2.8249    0.0
C    4.1961    -0.6773    0.0
C    4.1961    0.6773 0.0
C    0.6825    4.1912 0.0
C    -0.6825       4.1912    0.0
C    -4.1961       0.6773    0.0
C    -4.1961       -0.6773   0.0
C    -0.6825       -4.1912   0.0
C    0.6825    -4.1912    0.0
H    5.0441    -1.3538    0.0
H    5.0441    1.3538 0.0
H    1.3558    5.0416 0.0
H    -1.3558       5.0416    0.0
H    -5.0441       1.3538    0.0
H    -5.0441       -1.3538   0.0
H    -1.3558       -5.0416   0.0
H    1.3558    -5.0416    0.0
C    2.415     2.4083  0.0
C    -2.415    2.4083 0.0
C    -2.415    -2.4083    0.0
C    2.415     -2.4083 0.0
H    3.1855    3.1752 0.0
H    -3.1855       3.1752    0.0
H    -3.1855       -3.1752   0.0
H    3.1855    -3.1752    0.0